src/tests/data/grids/RAW/DACF_20240404_00_IGM.raw
0,   100.00, 33, 1, 1, 50.00     / PSS(R)E 33 RAW created by rawd33  WED, APR 03 2024  15:07
DACF (03-04-2024 15:07) HORIZON: 20240404 00H DEM: 24782.75
HID:7637MW,TERM:7291MW,EOL:6382MW,FV:0MW,OK
  1000,'BAAA        ', 132.0000,2,   1,  10,   1,1.00578,  37.4924,1.10000,0.90000,1.10000,0.90000
  1001,'BAAB        ', 132.0000,2,   1,   3,   1,1.03523,  34.1274,1.10000,0.90000,1.10000,0.90000
  1003,'BAAD        ', 132.0000,2,   1,   2,   1,1.02425,  39.7773,1.10000,0.90000,1.10000,0.90000
  1005,'BAAF        ', 132.0000,1,   1,   3,   1,1.03354,  27.3542,1.10000,0.90000,1.10000,0.90000
  1006,'BAAG        ', 132.0000,2,   1,   2,   1,1.02357,  39.2161,1.10000,0.90000,1.10000,0.90000
  1007,'BAAH        ', 132.0000,1,   1,  10,   1,1.02085,  37.5613,1.10000,0.90000,1.10000,0.90000
  1009,'BAAJ        ', 132.0000,2,   1,   2,   1,1.02833,  39.5830,1.10000,0.90000,1.10000,0.90000
  1010,'BABA        ', 132.0000,2,   1,   3,   1,1.03354,  27.3542,1.10000,0.90000,1.10000,0.90000
  1011,'BABB        ', 132.0000,1,   1,  10,   1,1.01427,  29.5531,1.10000,0.90000,1.10000,0.90000
  1012,'BABC        ', 132.0000,2,   1,   2,   1,1.03261,  44.3647,1.10000,0.90000,1.10000,0.90000
  1013,'BABD        ', 132.0000,2,   1,   1,   1,1.02494,  46.4365,1.10000,0.90000,1.10000,0.90000
  1014,'BABE        ', 132.0000,2,   1,   3,   1,1.03507,  26.6157,1.10000,0.90000,1.10000,0.90000
  1018,'BABI        ', 132.0000,1,   1,   3,   1,1.03871,  23.8494,1.10000,0.90000,1.10000,0.90000
  1021,'BACB        ', 132.0000,2,   1,   3,   1,1.03561,  24.3870,1.10000,0.90000,1.10000,0.90000
  1022,'BACC        ', 132.0000,2,   1,   2,   1,1.04209,  44.4040,1.10000,0.90000,1.10000,0.90000
  1025,'BACF        ', 132.0000,2,   1,   1,   1,1.05105,  45.2019,1.10000,0.90000,1.10000,0.90000
  1027,'BACH        ', 132.0000,2,   1,   2,   1,1.03931,  44.9923,1.10000,0.90000,1.10000,0.90000
  1033,'BADD        ', 132.0000,1,   1,   2,   1,1.04149,  44.6210,1.10000,0.90000,1.10000,0.90000
  1035,'BADF        ', 132.0000,1,   1,  10,   1,0.99751,  35.6405,1.10000,0.90000,1.10000,0.90000
  1040,'BAEA        ', 132.0000,2,   1,   3,   1,1.02529,  27.1724,1.10000,0.90000,1.10000,0.90000
  1042,'BAEC        ', 132.0000,2,   1,  10,   1,1.02050,  37.2812,1.10000,0.90000,1.10000,0.90000
  1043,'BAED        ', 132.0000,2,   1,   3,   1,1.04315,  34.5400,1.10000,0.90000,1.10000,0.90000
  1048,'BAEI        ', 132.0000,2,   1,  10,   1,1.01232,  29.5921,1.10000,0.90000,1.10000,0.90000
  1051,'BAFB        ', 132.0000,1,   1,   1,   1,1.03965,  41.9224,1.10000,0.90000,1.10000,0.90000
  1052,'BAFC        ', 132.0000,2,   1,  10,   1,1.01493,  29.1111,1.10000,0.90000,1.10000,0.90000
  1055,'BAFF        ', 132.0000,2,   1,   1,   1,1.03683,  42.2636,1.10000,0.90000,1.10000,0.90000
  1057,'BAFH        ', 132.0000,2,   1,   2,   1,1.03110,  43.1366,1.10000,0.90000,1.10000,0.90000
  1058,'BAFI        ', 132.0000,2,   1,  10,   1,1.01495,  29.1119,1.10000,0.90000,1.10000,0.90000
  1060,'BAGA        ', 132.0000,4,   1,  10,   1,1.00000,   0.0000,1.10000,0.90000,1.10000,0.90000
  1061,'BAGB        ', 132.0000,2,   1,  10,   1,1.00842,  29.2265,1.10000,0.90000,1.10000,0.90000
  1064,'BAGE        ', 132.0000,1,   1,   3,   1,1.03029,  31.9702,1.10000,0.90000,1.10000,0.90000
  1065,'BAGF        ', 132.0000,2,   1,   1,   1,1.02118,  40.1865,1.10000,0.90000,1.10000,0.90000
  1069,'BAGJ        ', 132.0000,1,   1,  10,   1,1.01629,  29.1492,1.10000,0.90000,1.10000,0.90000
  1072,'BAHC        ', 132.0000,1,   1,   3,   1,1.03193,  27.6970,1.10000,0.90000,1.10000,0.90000
  1076,'BAHG        ', 132.0000,2,   1,  10,   1,1.01256,  29.0923,1.10000,0.90000,1.10000,0.90000
  1078,'BAHI        ', 132.0000,2,   1,   1,   1,1.03637,  42.6911,1.10000,0.90000,1.10000,0.90000
  1079,'BAHJ        ', 132.0000,1,   1,   1,   1,1.02375,  41.0772,1.10000,0.90000,1.10000,0.90000
  1080,'BAIA        ', 132.0000,2,   1,   1,   1,1.03103,  46.7464,1.10000,0.90000,1.10000,0.90000
  1084,'BAIE        ', 132.0000,2,   1,   4,   1,0.97093,  27.0537,1.10000,0.90000,1.10000,0.90000
  1086,'BAIG        ', 132.0000,2,   1,   1,   1,1.04401,  44.5303,1.10000,0.90000,1.10000,0.90000
  1087,'BAIH        ', 132.0000,2,   1,   1,   1,1.05551,  42.7948,1.10000,0.90000,1.10000,0.90000
  1089,'BAIJ        ', 132.0000,2,   1,   1,   1,1.03484,  41.5987,1.10000,0.90000,1.10000,0.90000
  1090,'BAJA        ', 132.0000,2,   1,   3,   1,1.03359,  29.6885,1.10000,0.90000,1.10000,0.90000
  1091,'BAJB        ', 132.0000,2,   1,   1,   1,1.03845,  46.7219,1.10000,0.90000,1.10000,0.90000
  1094,'MONTOUTO    ',  20.0000,2,   1,   2,   1,1.08904,  42.0997,1.10000,0.90000,1.10000,0.90000
  1095,'BAJF        ', 132.0000,1,   1,   1,   1,1.04542,  45.1811,1.10000,0.90000,1.10000,0.90000
  1096,'BAJG        ', 132.0000,2,   1,   1,   1,1.04355,  42.2516,1.10000,0.90000,1.10000,0.90000
  1097,'BAJH        ', 132.0000,1,   1,   2,   1,1.00001,  38.6252,1.10000,0.90000,1.10000,0.90000
  1098,'BAJI        ', 132.0000,2,   1,   3,   1,1.03677,  24.0683,1.10000,0.90000,1.10000,0.90000
  1099,'BAJJ        ', 132.0000,1,   1,   3,   1,1.02687,  31.6937,1.10000,0.90000,1.10000,0.90000
  1105,'BBAF        ', 132.0000,1,   1,   2,   1,1.04336,  45.1373,1.10000,0.90000,1.10000,0.90000
  1106,'BBAG        ', 132.0000,1,   1,   2,   1,1.02564,  39.5380,1.10000,0.90000,1.10000,0.90000
  1107,'BBAH        ', 132.0000,2,   1,   2,   1,1.04474,  44.2646,1.10000,0.90000,1.10000,0.90000
  1111,'BBBB        ', 132.0000,1,   1,   1,   1,1.04964,  42.2624,1.10000,0.90000,1.10000,0.90000
  1114,'BBBE        ', 132.0000,1,   1,   1,   1,1.04963,  42.2648,1.10000,0.90000,1.10000,0.90000
  1115,'BBBF        ', 132.0000,1,   1,   1,   1,1.04298,  42.1948,1.10000,0.90000,1.10000,0.90000
  1117,'BBBH        ', 132.0000,1,   1,   2,   1,0.99917,  38.6774,1.10000,0.90000,1.10000,0.90000
  1120,'BBCA        ', 132.0000,2,   1,   2,   1,1.04475,  45.3979,1.10000,0.90000,1.10000,0.90000
  1123,'BBCD        ', 132.0000,1,   1,   1,   1,1.03380,  40.8558,1.10000,0.90000,1.10000,0.90000
  1126,'BBCG        ', 132.0000,2,   1,  10,   1,1.01737,  37.7368,1.10000,0.90000,1.10000,0.90000
  1129,'BBCJ        ', 132.0000,2,   1,   3,   1,1.01708,  28.2296,1.10000,0.90000,1.10000,0.90000
  1132,'BBDC        ', 132.0000,1,   1,   4,   1,1.01775,  23.4632,1.10000,0.90000,1.10000,0.90000
  1135,'BBDF        ', 132.0000,1,   1,   2,   1,1.04615,  45.5392,1.10000,0.90000,1.10000,0.90000
  1136,'BBDG        ', 132.0000,2,   1,   4,   1,0.97543,  26.9168,1.10000,0.90000,1.10000,0.90000
  1138,'BBDI        ', 132.0000,2,   1,   2,   1,1.03991,  44.2866,1.10000,0.90000,1.10000,0.90000
  1144,'BBEE        ', 132.0000,2,   1,   1,   1,1.03078,  40.0507,1.10000,0.90000,1.10000,0.90000
  1145,'BBEF        ', 132.0000,2,   1,   2,   1,1.02377,  39.2455,1.10000,0.90000,1.10000,0.90000
  1146,'BBEG        ', 132.0000,2,   1,   2,   1,1.00000,  38.3199,1.10000,0.90000,1.10000,0.90000
  1147,'BBEH        ', 132.0000,1,   1,  10,   1,1.00730,  37.5805,1.10000,0.90000,1.10000,0.90000
  1150,'BBFA        ', 132.0000,1,   1,   1,   1,1.03355,  40.0208,1.10000,0.90000,1.10000,0.90000
  1152,'BBFC        ', 132.0000,2,   1,   2,   1,1.02611,  41.0253,1.10000,0.90000,1.10000,0.90000
  1153,'BBFD        ', 132.0000,2,   1,   2,   1,1.04166,  44.5243,1.10000,0.90000,1.10000,0.90000
  1154,'BBFE        ', 132.0000,2,   1,   1,   1,1.00085,  38.8515,1.10000,0.90000,1.10000,0.90000
  1155,'BBFF        ', 132.0000,2,   1,   3,   1,1.01620,  39.2610,1.10000,0.90000,1.10000,0.90000
  1157,'BBFH        ', 132.0000,2,   1,   1,   1,1.03133,  40.3492,1.10000,0.90000,1.10000,0.90000
  1159,'BBFJ        ', 132.0000,2,   1,   3,   1,1.01964,  26.9121,1.10000,0.90000,1.10000,0.90000
  1160,'BBGA        ', 132.0000,2,   1,   1,   1,1.04942,  45.2865,1.10000,0.90000,1.10000,0.90000
  1161,'BBGB        ', 132.0000,1,   1,   3,   1,1.03384,  32.6662,1.10000,0.90000,1.10000,0.90000
  1162,'BBGC        ', 132.0000,1,   1,   3,   1,1.01943,  27.3981,1.10000,0.90000,1.10000,0.90000
  1166,'BBGG        ', 132.0000,2,   1,   3,   1,0.98659,  44.4347,1.10000,0.90000,1.10000,0.90000
  1177,'BBHH        ', 132.0000,1,   1,   3,   1,1.02524,  25.0876,1.10000,0.90000,1.10000,0.90000
  1180,'BBIA        ', 132.0000,2,   1,   3,   1,1.04109,  22.7318,1.10000,0.90000,1.10000,0.90000
  1183,'BBID        ', 132.0000,2,   1,   1,   1,1.04844,  42.5033,1.10000,0.90000,1.10000,0.90000
  1189,'BBIJ        ', 132.0000,2,   1,   3,   1,1.02779,  25.5160,1.10000,0.90000,1.10000,0.90000
  1192,'BBJC        ', 132.0000,2,   1,   1,   1,1.04687,  45.2698,1.10000,0.90000,1.10000,0.90000
  1195,'BBJF        ', 132.0000,1,   1,   2,   1,0.99661,  38.6814,1.10000,0.90000,1.10000,0.90000
  1197,'BBJH        ', 132.0000,2,   1,   2,   1,0.99636,  38.6522,1.10000,0.90000,1.10000,0.90000
  1198,'BBJI        ', 132.0000,2,   1,   2,   1,1.02416,  39.3570,1.10000,0.90000,1.10000,0.90000
  1204,'BCAE        ', 132.0000,2,   1,   3,   1,1.02174,  27.9760,1.10000,0.90000,1.10000,0.90000
  1208,'BCAI        ', 132.0000,2,   1,   4,   1,1.02906,  26.2674,1.10000,0.90000,1.10000,0.90000
  1210,'BCBA        ', 132.0000,2,   1,  10,   1,1.01268,  29.6454,1.10000,0.90000,1.10000,0.90000
  1212,'BCBC        ', 132.0000,2,   1,   3,   1,1.03748,  33.9088,1.10000,0.90000,1.10000,0.90000
  1220,'BCCA        ',  45.0000,2,   1,  10,   1,0.96582,  24.2708,1.10000,0.90000,1.10000,0.90000
  1221,'BCCB        ',  45.0000,2,   1,  10,   1,0.96563,  24.2869,1.10000,0.90000,1.10000,0.90000
  1227,'P.E.SIL     ',  20.0000,2,   1,   2,   1,1.03176,  47.0733,1.10000,0.90000,1.10000,0.90000
  1228,'P.E.SIL     ',  20.0000,2,   1,   2,   1,1.03337,  45.4499,1.10000,0.90000,1.10000,0.90000
  1229,'P.G.RODR    ',  17.0000,2,   1,   1,   1,0.98214,  42.0810,1.10000,0.90000,1.10000,0.90000
  1230,'LADA        ',  33.0000,4,   1,   3,   1,1.00000,   0.0000,1.10000,0.90000,1.10000,0.90000
  1231,'P.G.RODR    ',  17.0000,4,   1,   1,   1,1.00000,   0.0000,1.10000,0.90000,1.10000,0.90000
  1233,'P.G.RODR    ',  17.0000,2,   1,   1,   1,0.98551,  41.4327,1.10000,0.90000,1.10000,0.90000
  1235,'LADA        ',  33.0000,4,   1,   3,   1,1.00000,   0.0000,1.10000,0.90000,1.10000,0.90000
  1237,'BCDH        ',  45.0000,2,   1,  10,   1,0.99521,  40.5683,1.10000,0.90000,1.10000,0.90000
  1240,'MATAPORQ    ',  12.0000,4,   1,   4,   1,1.00000,   0.0000,1.10000,0.90000,1.10000,0.90000
  1244,'SABON       ',  19.0000,4,   1,   1,   1,1.00000,   0.0000,1.10000,0.90000,1.10000,0.90000
  1258,'SOTORIBE    ',  21.0000,2,   1,   3,   1,0.98253,  33.5519,1.10000,0.90000,1.10000,0.90000
  1275,'SOTORIBE    ',  20.0000,4,   1,   3,   1,1.00000,   0.0000,1.10000,0.90000,1.10000,0.90000
  1278,'BCHI        ',  66.0000,2,   1,   1,   1,1.08138,  44.5970,1.10000,0.90000,1.10000,0.90000
  1290,'VELLE       ',  20.0000,2,   1,   2,   1,1.04370,  39.0803,1.10000,0.90000,1.10000,0.90000
  1291,'VELLE       ',  20.0000,1,   1,   2,   1,1.03737,  40.1168,1.10000,0.90000,1.10000,0.90000
  1294,'BCJE        ', 132.0000,2,   1,   1,   1,1.04880,  46.1638,1.10000,0.90000,1.10000,0.90000
  1297,'BCJH        ', 132.0000,2,   1,   3,   1,0.98275,  43.3292,1.10000,0.90000,1.10000,0.90000
  1311,'BDBB        ', 132.0000,1,   1,   3,   1,0.96836,  19.0231,1.10000,0.90000,1.10000,0.90000
  1386,'MORALUNA    ',   6.6000,2,   1,  10,   1,0.96069,  31.6623,1.10000,0.90000,1.10000,0.90000
  1396,'BDJG        ', 132.0000,2,   1,   3,   1,0.97859,  41.9305,1.10000,0.90000,1.10000,0.90000
  1398,'BDJI        ', 132.0000,2,   1,   3,   1,0.98297,  43.3748,1.10000,0.90000,1.10000,0.90000
  1399,'BDJJ        ', 132.0000,2,   1,   3,   1,0.98438,  43.7061,1.10000,0.90000,1.10000,0.90000
  1417,'BEBH        ', 132.0000,1,   1,   3,   1,1.02662,  28.3409,1.10000,0.90000,1.10000,0.90000
  1434,'SOTORIBE    ',  21.0000,4,   1,   3,   1,1.00000,   0.0000,1.10000,0.90000,1.10000,0.90000
  1506,'BFAG        ', 132.0000,2,   1,  10,   1,1.04251,  31.1472,1.10000,0.90000,1.10000,0.90000
  1510,'BFBA        ', 132.0000,2,   1,   1,   1,1.03979,  47.4112,1.10000,0.90000,1.10000,0.90000
  1513,'BFBD        ', 132.0000,2,   1,   3,   1,1.01629,  39.2777,1.10000,0.90000,1.10000,0.90000
  1514,'BFBE        ', 132.0000,2,   1,   3,   1,1.03573,  33.2867,1.10000,0.90000,1.10000,0.90000
  1516,'BFBG        ', 132.0000,2,   1,   3,   1,1.01597,  39.1717,1.10000,0.90000,1.10000,0.90000
  1518,'BFBI        ', 132.0000,1,   1,   2,   1,1.00805,  37.8762,1.10000,0.90000,1.10000,0.90000
  1519,'BFBJ        ', 132.0000,1,   1,   3,   1,1.01858,  39.6942,1.10000,0.90000,1.10000,0.90000
  1527,'BFCH        ', 132.0000,2,   1,  10,   1,1.01246,  29.0863,1.10000,0.90000,1.10000,0.90000
  1530,'BFDA        ',  66.0000,4,   1,   1,   1,1.00000,   0.0000,1.10000,0.90000,1.10000,0.90000
  1533,'BFDD        ', 132.0000,2,   1,   3,   1,1.03116,  27.5991,1.10000,0.90000,1.10000,0.90000
  1535,'BFDF        ', 132.0000,4,   1,  10,   1,1.00000,   0.0000,1.10000,0.90000,1.10000,0.90000
  1542,'BFEC        ', 132.0000,1,   1,   1,   1,1.04093,  34.0986,1.10000,0.90000,1.10000,0.90000
  1543,'BFED        ', 132.0000,2,   1,   1,   1,1.04792,  45.3318,1.10000,0.90000,1.10000,0.90000
  1545,'BFEF        ',  66.0000,2,   1,   2,   1,1.06650,  42.5764,1.10000,0.90000,1.10000,0.90000
  1546,'BFEG        ',  66.0000,2,   1,   1,   1,1.03078,  40.4170,1.10000,0.90000,1.10000,0.90000
  1548,'BFEI        ',  66.0000,1,   1,   1,   1,1.00818,  48.1850,1.10000,0.90000,1.10000,0.90000
  1549,'LAGOA       ',  30.0000,2,   1,   1,   1,1.02472,  47.2213,1.10000,0.90000,1.10000,0.90000
  1551,'BFFB        ',  66.0000,2,   1,   1,   1,1.01296,  49.6276,1.10000,0.90000,1.10000,0.90000
  1552,'BFFC        ', 132.0000,2,   1,   1,   1,0.99842,  41.0978,1.10000,0.90000,1.10000,0.90000
  1553,'BFFD        ',  66.0000,1,   1,   1,   1,0.98701,  47.3985,1.10000,0.90000,1.10000,0.90000
  1556,'BFFG        ',  66.0000,2,   1,   1,   1,0.99274,  49.3516,1.10000,0.90000,1.10000,0.90000
  1557,'BFFH        ',  66.0000,2,   1,   1,   1,1.03091,  40.4784,1.10000,0.90000,1.10000,0.90000
  1558,'BFFI        ',  55.0000,1,   1,   4,   1,1.03232,  21.1122,1.10000,0.90000,1.10000,0.90000
  1560,'BFGA        ',  66.0000,1,   1,   1,   1,1.03575,  40.4517,1.10000,0.90000,1.10000,0.90000
  1572,'BFHC        ',  55.0000,2,   1,   4,   1,1.02030,  21.3644,1.10000,0.90000,1.10000,0.90000
  1573,'BFHD        ', 132.0000,2,   1,  10,   1,1.01141,  29.3127,1.10000,0.90000,1.10000,0.90000
  1575,'BFHF        ', 132.0000,2,   1,   1,   1,0.99733,  40.8180,1.10000,0.90000,1.10000,0.90000
  1576,'BFHG        ', 132.0000,2,   1,   1,   1,1.03731,  42.0258,1.10000,0.90000,1.10000,0.90000
  1580,'BFIA        ',  66.0000,2,   1,   1,   1,1.02532,  38.2582,1.10000,0.90000,1.10000,0.90000
  1585,'BFIF        ',  66.0000,2,   1,   1,   1,1.05678,  41.4281,1.10000,0.90000,1.10000,0.90000
  1601,'CARRIO      ',  22.0000,4,   1,   3,   1,1.00000,   0.0000,1.10000,0.90000,1.10000,0.90000
  1602,'CARRIO      ',  19.0000,2,   1,   3,   1,0.94158,  27.4064,1.10000,0.90000,1.10000,0.90000
  1606,'AGUAYO      ',  12.0000,2,   1,   4,   1,0.95070,  27.0811,1.10000,0.90000,1.10000,0.90000
  1607,'AGUAYO      ',  12.0000,2,   1,   4,   1,0.94897,  25.3080,1.10000,0.90000,1.10000,0.90000
  1608,'AGUAYO      ',  12.0000,2,   1,   4,   1,0.95043,  27.1412,1.10000,0.90000,1.10000,0.90000
  1609,'AGUAYO      ',  12.0000,2,   1,   4,   1,0.95104,  27.1379,1.10000,0.90000,1.10000,0.90000
  1615,'ALBARELL    ',  11.0000,2,   1,   2,   1,1.00474,  45.1828,1.10000,0.90000,1.10000,0.90000
  1621,'ARBON       ',  11.0000,4,   1,   3,   1,1.00000,   0.0000,1.10000,0.90000,1.10000,0.90000
  1622,'ARBON       ',  11.0000,4,   1,   3,   1,1.00000,   0.0000,1.10000,0.90000,1.10000,0.90000
  1630,'BARCENA     ',  11.0000,4,   1,  10,   1,1.00000,   0.0000,1.10000,0.90000,1.10000,0.90000
  1631,'BARCENA     ',  11.0000,2,   1,  10,   1,0.98060,  42.9413,1.10000,0.90000,1.10000,0.90000
  1638,'BELESAR     ',  11.0000,2,   1,   2,   1,0.95379,  47.5929,1.10000,0.90000,1.10000,0.90000
  1639,'BELESAR     ',  11.0000,2,   1,   2,   1,0.95271,  47.4990,1.10000,0.90000,1.10000,0.90000
  1640,'BELESAR     ',  11.0000,2,   1,   2,   1,0.94726,  52.1479,1.10000,0.90000,1.10000,0.90000
  1646,'CASTRELO    ',  11.0000,2,   1,   2,   1,0.99824,  46.7829,1.10000,0.90000,1.10000,0.90000
  1647,'CASTRELO    ',  11.0000,2,   1,   2,   1,0.99577,  46.9306,1.10000,0.90000,1.10000,0.90000
  1664,'CONCHAS     ',  11.0000,2,   1,   2,   1,1.03535,  48.8365,1.10000,0.90000,1.10000,0.90000
  1670,'CONCHAS     ',   6.6000,2,   1,   2,   1,1.03571,  49.1071,1.10000,0.90000,1.10000,0.90000
  1672,'CONCHAS     ',   6.6000,2,   1,   2,   1,1.03552,  49.1439,1.10000,0.90000,1.10000,0.90000
  1675,'CONSO       ',  15.0000,4,   1,   2,   1,1.00000,   0.0000,1.10000,0.90000,1.10000,0.90000
  1676,'CONSO       ',  15.0000,2,   1,   2,   1,0.93493,  39.3536,1.10000,0.90000,1.10000,0.90000
  1677,'CONSO       ',  15.0000,4,   1,   2,   1,1.00000,   0.0000,1.10000,0.90000,1.10000,0.90000
  1679,'CORNATEL    ',  11.0000,4,   1,  10,   1,1.00000,   0.0000,1.10000,0.90000,1.10000,0.90000
  1680,'CORNATEL    ',  11.0000,2,   1,  10,   1,0.96734,  42.1615,1.10000,0.90000,1.10000,0.90000
  1685,'EUME        ',  11.0000,2,   1,   1,   1,0.97199,  47.7605,1.10000,0.90000,1.10000,0.90000
  1686,'EUME        ',  11.0000,2,   1,   1,   1,0.97127,  47.6646,1.10000,0.90000,1.10000,0.90000
  1688,'FRIEIRA     ',  11.0000,2,   1,   2,   1,0.98363,  48.3754,1.10000,0.90000,1.10000,0.90000
  1689,'FRIEIRA     ',  11.0000,2,   1,   2,   1,0.97967,  48.2263,1.10000,0.90000,1.10000,0.90000
  1699,'FRIEIRA     ',  11.0000,2,   1,   2,   1,0.88423,  47.9512,1.10000,0.90000,1.10000,0.90000
  1700,'LA BARCA    ',  11.0000,4,   1,   3,   1,1.00000,   0.0000,1.10000,0.90000,1.10000,0.90000
  1702,'LA BARCA    ',  11.0000,2,   1,   3,   1,0.89497,  36.2539,1.10000,0.90000,1.10000,0.90000
  1708,'LA LOMBA    ',  24.0000,4,   1,  10,   1,1.00000,   0.0000,1.10000,0.90000,1.10000,0.90000
  1716,'MONTEFUR    ',   6.3000,2,   1,   2,   1,1.01956,  41.0444,1.10000,0.90000,1.10000,0.90000
  1717,'MONTEFUR    ',   6.3000,2,   1,   2,   1,1.02934,  40.8986,1.10000,0.90000,1.10000,0.90000
  1718,'MONTEFUR    ',   6.3000,2,   1,   2,   1,1.01990,  41.0839,1.10000,0.90000,1.10000,0.90000
  1726,'ONDINAS     ',  11.0000,2,   1,  10,   1,0.91075,  41.9113,1.10000,0.90000,1.10000,0.90000
  1727,'ONDINAS     ',  11.0000,2,   1,  10,   1,0.91438,  43.8678,1.10000,0.90000,1.10000,0.90000
  1731,'P.BIBEY     ',  15.0000,2,   1,   2,   1,0.93407,  44.4461,1.10000,0.90000,1.10000,0.90000
  1732,'P.BIBEY     ',  15.0000,4,   1,   2,   1,1.00000,   0.0000,1.10000,0.90000,1.10000,0.90000
  1733,'P.BIBEY     ',  15.0000,2,   1,   2,   1,0.93512,  44.5834,1.10000,0.90000,1.10000,0.90000
  1734,'P.BIBEY     ',  15.0000,2,   1,   2,   1,0.93160,  44.6534,1.10000,0.90000,1.10000,0.90000
  1751,'P.NOVO      ',   6.3000,2,   1,   2,   1,1.01059,  41.2448,1.10000,0.90000,1.10000,0.90000
  1752,'P.NOVO      ',   6.3000,2,   1,   2,   1,1.01025,  41.3275,1.10000,0.90000,1.10000,0.90000
  1753,'P.NOVO      ',   6.3000,2,   1,   2,   1,1.00187,  39.9115,1.10000,0.90000,1.10000,0.90000
  1761,'PEARES      ',  11.0000,2,   1,   2,   1,0.99352,  51.2541,1.10000,0.90000,1.10000,0.90000
  1762,'PEARES      ',  11.0000,2,   1,   2,   1,0.99390,  50.8401,1.10000,0.90000,1.10000,0.90000
  1763,'PEARES      ',  11.0000,2,   1,   2,   1,0.99619,  51.3068,1.10000,0.90000,1.10000,0.90000
  1769,'PENADRAD    ',  11.0000,2,   1,  10,   1,0.91395,  39.6875,1.10000,0.90000,1.10000,0.90000
  1770,'PENADRAD    ',  11.0000,2,   1,  10,   1,0.91597,  39.8848,1.10000,0.90000,1.10000,0.90000
  1773,'PEREDA      ',  10.5000,2,   1,   3,   1,0.98913,  31.2009,1.10000,0.90000,1.10000,0.90000
  1776,'PDEMOURO    ',  11.0000,2,   1,   2,   1,0.91583,  46.8719,1.10000,0.90000,1.10000,0.90000
  1777,'PDEMOURO    ',  11.0000,2,   1,   2,   1,0.91694,  46.7618,1.10000,0.90000,1.10000,0.90000
...
0 / END OF BUS DATA, BEGIN LOAD DATA
  1000,'1 ',1,   1,  10,     5.551,     1.657,     0.000,     0.000,     0.000,     0.000,   1,1,0
  1000,'2 ',0,   1,  10,     0.000,     0.000,     0.000,     0.000,     0.000,     0.000,   1,1,0
  1001,'1 ',1,   1,   3,     7.894,     7.708,     0.000,     0.000,     0.000,     0.000,   1,1,0
  1001,'2 ',1,   1,   3,     7.976,     6.332,     0.000,     0.000,     0.000,     0.000,   1,1,0
  1001,'99',1,   1,   3,    -6.107,    -1.426,     0.000,     0.000,     0.000,     0.000,   1,1,0
  1003,'1 ',0,   1,   2,     0.000,     0.000,     0.000,     0.000,     0.000,     0.000,   1,1,0
  1003,'2 ',1,   1,   2,     2.327,    12.684,     0.000,     0.000,     0.000,     0.000,   1,1,0
  1003,'84',0,   1,   2,     0.000,     0.000,     0.000,     0.000,     0.000,     0.000,   1,1,0
  1003,'99',1,   1,   2,    26.139,     3.039,     0.000,     0.000,     0.000,     0.000,   1,1,0
  1006,'1 ',1,   1,   2,    19.784,    -1.741,     0.000,     0.000,     0.000,     0.000,   1,1,0
  1006,'2 ',1,   1,   2,    19.784,    -1.741,     0.000,     0.000,     0.000,     0.000,   1,1,0
  1006,'3 ',0,   1,   2,     0.000,     0.000,     0.000,     0.000,     0.000,     0.000,   1,1,0
  1006,'84',0,   1,   2,     0.000,     0.000,     0.000,     0.000,     0.000,     0.000,   1,1,0
  1006,'99',1,   1,   2,    63.986,     5.399,     0.000,     0.000,     0.000,     0.000,   1,1,0
  1009,'1 ',0,   1,   2,     0.000,     0.000,     0.000,     0.000,     0.000,     0.000,   1,1,0
  1009,'2 ',1,   1,   2,   -15.503,     2.250,     0.000,     0.000,     0.000,     0.000,   1,1,0
  1009,'3 ',1,   1,   2,   -15.503,     2.250,     0.000,     0.000,     0.000,     0.000,   1,1,0
  1009,'84',0,   1,   2,     0.000,     0.000,     0.000,     0.000,     0.000,     0.000,   1,1,0
  1010,'1 ',1,   1,   3,   -37.179,     8.623,     0.000,     0.000,     0.000,     0.000,   1,1,0
  1014,'1 ',1,   1,   3,    -6.446,     0.942,     0.000,     0.000,     0.000,     0.000,   1,1,0
  1018,'3 ',1,   1,   3,     3.226,     3.689,     0.000,     0.000,     0.000,     0.000,   1,1,0
  1018,'4 ',1,   1,   3,     1.008,     1.888,     0.000,     0.000,     0.000,     0.000,   1,1,0
  1018,'5 ',0,   1,   3,     0.000,     0.000,     0.000,     0.000,     0.000,     0.000,   1,1,0
  1018,'6 ',1,   1,   3,    14.265,    -1.390,     0.000,     0.000,     0.000,     0.000,   1,1,0
  1018,'99',1,   1,   3,    13.792,     2.559,     0.000,     0.000,     0.000,     0.000,   1,1,0
  1021,'1 ',1,   1,   3,     7.906,    -6.170,     0.000,     0.000,     0.000,     0.000,   1,1,0
  1021,'2 ',1,   1,   3,    12.755,    -9.591,     0.000,     0.000,     0.000,     0.000,   1,1,0
  1021,'84',0,   1,   3,     0.000,     0.000,     0.000,     0.000,     0.000,     0.000,   1,1,0
  1022,'1 ',0,   1,   2,     0.000,     0.000,     0.000,     0.000,     0.000,     0.000,   1,1,0
  1022,'2 ',1,   1,   2,    -3.196,    -0.628,     0.000,     0.000,     0.000,     0.000,   1,1,0
  1022,'99',1,   1,   2,     5.986,    -2.265,     0.000,     0.000,     0.000,     0.000,   1,1,0
  1027,'3 ',1,   1,   2,     4.626,    -2.975,     0.000,     0.000,     0.000,     0.000,   1,1,0
  1027,'4 ',1,   1,   2,     4.626,    -2.975,     0.000,     0.000,     0.000,     0.000,   1,1,0
  1027,'6 ',1,   1,   2,     4.626,    -2.975,     0.000,     0.000,     0.000,     0.000,   1,1,0
  1027,'84',0,   1,   2,     0.000,     0.000,     0.000,     0.000,     0.000,     0.000,   1,1,0
  1033,'1 ',0,   1,   2,     0.000,     0.000,     0.000,     0.000,     0.000,     0.000,   1,1,0
  1035,'1 ',1,   1,  10,    17.161,     2.856,     0.000,     0.000,     0.000,     0.000,   1,0,0
  1035,'2 ',0,   1,  10,     0.000,     0.000,     0.000,     0.000,     0.000,     0.000,   1,1,0
  1040,'1 ',1,   1,   3,     8.620,     6.816,     0.000,     0.000,     0.000,     0.000,   1,1,0
  1040,'2 ',0,   1,   3,     0.000,     0.000,     0.000,     0.000,     0.000,     0.000,   1,1,0
  1040,'3 ',1,   1,   3,     2.323,    -2.769,     0.000,     0.000,     0.000,     0.000,   1,1,0
  1040,'4 ',1,   1,   3,    14.480,    -1.691,     0.000,     0.000,     0.000,     0.000,   1,1,0
  1040,'5 ',1,   1,   3,    12.763,    -0.867,     0.000,     0.000,     0.000,     0.000,   1,1,0
  1040,'6 ',1,   1,   3,     8.080,    -1.420,     0.000,     0.000,     0.000,     0.000,   1,1,0
  1040,'7 ',0,   1,   3,     0.000,     0.000,     0.000,     0.000,     0.000,     0.000,   1,1,0
  1040,'8 ',1,   1,   3,    13.883,    -3.196,     0.000,     0.000,     0.000,     0.000,   1,1,0
  1040,'99',1,   1,   3,    33.592,    -3.503,     0.000,     0.000,     0.000,     0.000,   1,1,0
  1042,'1 ',0,   1,  10,     0.000,     0.000,     0.000,     0.000,     0.000,     0.000,   1,0,0
  1043,'3 ',0,   1,   3,     0.000,     0.000,     0.000,     0.000,     0.000,     0.000,   1,1,0
  1048,'2 ',1,   1,  10,    -5.668,    -0.882,     0.000,     0.000,     0.000,     0.000,   1,1,0
  1048,'86',0,   1,  10,     0.000,     0.000,     0.000,     0.000,     0.000,     0.000,   1,1,0
  1051,'3 ',1,   1,   1,     4.541,     6.769,     0.000,     0.000,     0.000,     0.000,   1,0,0
  1051,'99',1,   1,   1,    16.991,    -3.125,     0.000,     0.000,     0.000,     0.000,   1,1,0
  1052,'1 ',1,   1,  10,     4.232,     1.312,     0.000,     0.000,     0.000,     0.000,   1,1,0
  1052,'3 ',0,   1,  10,     0.000,     0.000,     0.000,     0.000,     0.000,     0.000,   1,1,0
  1052,'84',0,   1,  10,     0.000,     0.000,     0.000,     0.000,     0.000,     0.000,   1,1,0
  1055,'1 ',1,   1,   1,    15.291,     2.218,     0.000,     0.000,     0.000,     0.000,   1,0,0
  1055,'2 ',1,   1,   1,    11.251,    -2.471,     0.000,     0.000,     0.000,     0.000,   1,1,0
  1055,'84',0,   1,   1,     0.000,     0.000,     0.000,     0.000,     0.000,     0.000,   1,1,0
  1057,'1 ',0,   1,   2,     0.000,     0.000,     0.000,     0.000,     0.000,     0.000,   1,1,0
  1057,'2 ',1,   1,   2,    -6.694,   -14.117,     0.000,     0.000,     0.000,     0.000,   1,1,0
  1057,'86',0,   1,   2,     0.000,     0.000,     0.000,     0.000,     0.000,     0.000,   1,1,0
  1057,'99',1,   1,   2,     2.426,     0.494,     0.000,     0.000,     0.000,     0.000,   1,1,0
  1058,'86',0,   1,  10,     0.000,     0.000,     0.000,     0.000,     0.000,     0.000,   1,1,0
  1060,'84',0,   1,  10,     0.000,     0.000,     0.000,     0.000,     0.000,     0.000,   1,1,0
  1061,'1 ',1,   1,  10,    30.094,    -3.503,     0.000,     0.000,     0.000,     0.000,   1,1,0
  1061,'2 ',1,   1,  10,    30.094,    -3.503,     0.000,     0.000,     0.000,     0.000,   1,1,0
  1061,'84',0,   1,  10,     0.000,     0.000,     0.000,     0.000,     0.000,     0.000,   1,1,0
  1061,'86',0,   1,  10,     0.000,     0.000,     0.000,     0.000,     0.000,     0.000,   1,1,0
  1061,'99',1,   1,  10,    22.650,   -10.068,     0.000,     0.000,     0.000,     0.000,   1,1,0
  1065,'1 ',1,   1,   1,    -8.312,    -0.872,     0.000,     0.000,     0.000,     0.000,   1,1,0
  1065,'2 ',1,   1,   1,    -9.659,     1.742,     0.000,     0.000,     0.000,     0.000,   1,1,0
  1065,'3 ',1,   1,   1,    -9.964,     3.019,     0.000,     0.000,     0.000,     0.000,   1,0,0
  1065,'88',1,   1,   1,    49.085,     0.000,     0.000,     0.000,     0.000,     0.000,   1,1,0
  1065,'99',1,   1,   1,    10.331,     0.366,     0.000,     0.000,     0.000,     0.000,   1,1,0
  1069,'1 ',1,   1,  10,     3.311,     1.653,     0.000,     0.000,     0.000,     0.000,   1,0,0
  1069,'99',1,   1,  10,     3.412,    -3.544,     0.000,     0.000,     0.000,     0.000,   1,1,0
  1072,'5 ',1,   1,   3,    -5.212,     1.117,     0.000,     0.000,     0.000,     0.000,   1,1,0
  1072,'6 ',1,   1,   3,    -5.168,    -1.145,     0.000,     0.000,     0.000,     0.000,   1,1,0
  1072,'99',1,   1,   3,    47.898,    -1.008,     0.000,     0.000,     0.000,     0.000,   1,1,0
  1076,'1 ',1,   1,  10,    21.097,    -5.002,     0.000,     0.000,     0.000,     0.000,   1,1,0
  1076,'2 ',1,   1,  10,     4.643,    -0.701,     0.000,     0.000,     0.000,     0.000,   1,1,0
  1076,'3 ',1,   1,  10,    21.884,    -4.252,     0.000,     0.000,     0.000,     0.000,   1,1,0
  1076,'4 ',1,   1,  10,     2.597,     0.626,     0.000,     0.000,     0.000,     0.000,   1,1,0
  1076,'84',0,   1,  10,     0.000,     0.000,     0.000,     0.000,     0.000,     0.000,   1,1,0
  1076,'86',0,   1,  10,     0.000,     0.000,     0.000,     0.000,     0.000,     0.000,   1,1,0
  1076,'99',1,   1,  10,    20.717,    -5.005,     0.000,     0.000,     0.000,     0.000,   1,1,0
  1078,'1 ',0,   1,   1,     0.000,     0.000,     0.000,     0.000,     0.000,     0.000,   1,1,0
  1078,'2 ',1,   1,   1,    21.362,    -1.981,     0.000,     0.000,     0.000,     0.000,   1,1,0
  1078,'84',0,   1,   1,     0.000,     0.000,     0.000,     0.000,     0.000,     0.000,   1,1,0
  1079,'99',1,   1,   1,    18.964,    -4.617,     0.000,     0.000,     0.000,     0.000,   1,1,0
  1080,'1 ',1,   1,   1,     5.583,    -1.797,     0.000,     0.000,     0.000,     0.000,   1,1,0
  1080,'2 ',1,   1,   1,     4.707,    -0.910,     0.000,     0.000,     0.000,     0.000,   1,1,0
  1080,'84',0,   1,   1,     0.000,     0.000,     0.000,     0.000,     0.000,     0.000,   1,1,0
  1080,'99',1,   1,   1,     7.900,    -1.038,     0.000,     0.000,     0.000,     0.000,   1,1,0
  1084,'6 ',1,   1,   4,    -1.341,    -0.369,     0.000,     0.000,     0.000,     0.000,   1,0,0
  1084,'8 ',1,   1,   4,    -1.060,    -0.117,     0.000,     0.000,     0.000,     0.000,   1,0,0
  1084,'86',0,   1,   4,     0.000,     0.000,     0.000,     0.000,     0.000,     0.000,   1,1,0
  1086,'1 ',0,   1,   1,     0.000,     0.000,     0.000,     0.000,     0.000,     0.000,   1,1,0
  1086,'2 ',1,   1,   1,     7.051,     0.396,     0.000,     0.000,     0.000,     0.000,   1,1,0
  1086,'88',0,   1,   1,     0.000,     0.000,     0.000,     0.000,     0.000,     0.000,   1,1,0
  1087,'1 ',1,   1,   1,     4.837,    -1.002,     0.000,     0.000,     0.000,     0.000,   1,1,0
  1087,'2 ',0,   1,   1,     0.000,     0.000,     0.000,     0.000,     0.000,     0.000,   1,1,0
  1087,'99',1,   1,   1,    18.606,    -5.144,     0.000,     0.000,     0.000,     0.000,   1,1,0
  1089,'2 ',1,   1,   1,    52.842,    11.656,     0.000,     0.000,     0.000,     0.000,   1,0,0
  1090,'1 ',1,   1,   3,     3.763,     0.789,     0.000,     0.000,     0.000,     0.000,   1,1,0
  1091,'1 ',1,   1,   1,     2.094,     1.676,     0.000,     0.000,     0.000,     0.000,   1,1,0
  1091,'2 ',0,   1,   1,     0.000,     0.000,     0.000,     0.000,     0.000,     0.000,   1,1,0
  1091,'99',1,   1,   1,     8.323,    -0.959,     0.000,     0.000,     0.000,     0.000,   1,1,0
  1095,'1 ',0,   1,   1,     0.000,     0.000,     0.000,     0.000,     0.000,     0.000,   1,1,0
  1095,'2 ',1,   1,   1,     9.795,     0.135,     0.000,     0.000,     0.000,     0.000,   1,1,0
  1096,'1 ',1,   1,   1,     4.534,    -8.725,     0.000,     0.000,     0.000,     0.000,   1,1,0
  1096,'2 ',0,   1,   1,     0.000,     0.000,     0.000,     0.000,     0.000,     0.000,   1,1,0
  1096,'3 ',1,   1,   1,    -1.049,     1.914,     0.000,     0.000,     0.000,     0.000,   1,0,0
  1096,'84',0,   1,   1,     0.000,     0.000,     0.000,     0.000,     0.000,     0.000,   1,1,0
  1098,'1 ',1,   1,   3,     5.227,    -3.598,     0.000,     0.000,     0.000,     0.000,   1,1,0
  1098,'2 ',0,   1,   3,     0.000,     0.000,     0.000,     0.000,     0.000,     0.000,   1,1,0
  1098,'3 ',1,   1,   3,     8.437,    -3.550,     0.000,     0.000,     0.000,     0.000,   1,1,0
  1098,'4 ',1,   1,   3,     0.248,    -1.653,     0.000,     0.000,     0.000,     0.000,   1,1,0
  1098,'5 ',1,   1,   3,     8.520,    -7.735,     0.000,     0.000,     0.000,     0.000,   1,0,0
  1098,'6 ',1,   1,   3,    11.592,    -5.287,     0.000,     0.000,     0.000,     0.000,   1,1,0
  1098,'84',0,   1,   3,     0.000,     0.000,     0.000,     0.000,     0.000,     0.000,   1,1,0
  1098,'99',1,   1,   3,    23.592,    -7.647,     0.000,     0.000,     0.000,     0.000,   1,1,0
  1099,'1 ',1,   1,   3,    -0.335,     0.289,     0.000,     0.000,     0.000,     0.000,   1,0,0
  1099,'2 ',1,   1,   3,    -2.639,    -1.894,     0.000,     0.000,     0.000,     0.000,   1,0,0
  1099,'3 ',1,   1,   3,    -5.690,    -2.162,     0.000,     0.000,     0.000,     0.000,   1,1,0
  1105,'1 ',1,   1,   1,     0.298,     1.633,     0.000,     0.000,     0.000,     0.000,   1,1,0
  1105,'2 ',0,   1,   1,     0.000,     0.000,     0.000,     0.000,     0.000,     0.000,   1,1,0
  1106,'4 ',1,   1,   2,     7.171,    -8.450,     0.000,     0.000,     0.000,     0.000,   1,1,0
  1106,'5 ',1,   1,   2,     7.171,    -8.450,     0.000,     0.000,     0.000,     0.000,   1,1,0
  1106,'99',1,   1,   2,     1.266,     0.316,     0.000,     0.000,     0.000,     0.000,   1,1,0
  1107,'1 ',1,   1,   2,   -11.224,    -1.880,     0.000,     0.000,     0.000,     0.000,   1,1,0
  1107,'88',1,   1,   2,    15.981,     0.000,     0.000,     0.000,     0.000,     0.000,   1,1,0
  1107,'99',1,   1,   2,    11.831,    -0.928,     0.000,     0.000,     0.000,     0.000,   1,1,0
  1120,'1 ',1,   1,   2,    13.879,   -27.134,     0.000,     0.000,     0.000,     0.000,   1,1,0
  1120,'2 ',0,   1,   2,     0.000,     0.000,     0.000,     0.000,     0.000,     0.000,   1,1,0
  1123,'1 ',1,   1,   1,    15.556,    -2.576,     0.000,     0.000,     0.000,     0.000,   1,1,0
  1126,'2 ',1,   1,  10,     9.268,    -1.887,     0.000,     0.000,     0.000,     0.000,   1,1,0
  1126,'84',0,   1,  10,     0.000,     0.000,     0.000,     0.000,     0.000,     0.000,   1,1,0
  1126,'86',0,   1,  10,     0.000,     0.000,     0.000,     0.000,     0.000,     0.000,   1,1,0
  1129,'1 ',1,   1,   3,    -5.329,    -0.236,     0.000,     0.000,     0.000,     0.000,   1,1,0
  1129,'2 ',1,   1,   3,     0.724,    -0.887,     0.000,     0.000,     0.000,     0.000,   1,1,0
  1129,'99',1,   1,   3,     3.595,    -1.787,     0.000,     0.000,     0.000,     0.000,   1,1,0
  1132,'99',1,   1,   4,     3.486,    -2.751,     0.000,     0.000,     0.000,     0.000,   1,1,0
  1136,'3 ',1,   1,   4,     6.117,    -2.758,     0.000,     0.000,     0.000,     0.000,   1,1,0
  1136,'88',1,   1,   4,     1.142,     0.000,     0.000,     0.000,     0.000,     0.000,   1,1,0
  1138,'1 ',0,   1,   2,     0.000,     0.000,     0.000,     0.000,     0.000,     0.000,   1,1,0
  1138,'2 ',1,   1,   2,    19.460,    13.860,     0.000,     0.000,     0.000,     0.000,   1,1,0
  1138,'3 ',1,   1,   2,     3.954,    -1.539,     0.000,     0.000,     0.000,     0.000,   1,1,0
  1138,'84',0,   1,   2,     0.000,     0.000,     0.000,     0.000,     0.000,     0.000,   1,1,0
  1138,'86',0,   1,   2,     0.000,     0.000,     0.000,     0.000,     0.000,     0.000,   1,1,0
  1138,'88',1,   1,   2,    15.981,     0.000,     0.000,     0.000,     0.000,     0.000,   1,1,0
  1138,'99',1,   1,   2,    27.211,    -5.442,     0.000,     0.000,     0.000,     0.000,   1,1,0
  1144,'2 ',1,   1,   1,    32.388,     4.267,     0.000,     0.000,     0.000,     0.000,   1,1,0
  1144,'3 ',0,   1,   1,     0.000,     0.000,     0.000,     0.000,     0.000,     0.000,   1,1,0
  1144,'84',0,   1,   1,     0.000,     0.000,     0.000,     0.000,     0.000,     0.000,   1,1,0
  1145,'1 ',0,   1,   2,     0.000,     0.000,     0.000,     0.000,     0.000,     0.000,   1,1,0
  1145,'2 ',1,   1,   2,    16.550,     3.342,     0.000,     0.000,     0.000,     0.000,   1,1,0
  1145,'84',0,   1,   2,     0.000,     0.000,     0.000,     0.000,     0.000,     0.000,   1,1,0
  1145,'99',1,   1,   2,     3.136,     0.696,     0.000,     0.000,     0.000,     0.000,   1,1,0
  1150,'1 ',1,   1,   1,     0.650,    -2.103,     0.000,     0.000,     0.000,     0.000,   1,1,0
  1150,'5 ',0,   1,   1,     0.000,     0.000,     0.000,     0.000,     0.000,     0.000,   1,1,0
  1150,'6 ',1,   1,   1,    15.081,    -2.943,     0.000,     0.000,     0.000,     0.000,   1,1,0
  1152,'1 ',1,   1,   2,     4.949,     2.248,     0.000,     0.000,     0.000,     0.000,   1,1,0
  1152,'2 ',0,   1,   2,     0.000,     0.000,     0.000,     0.000,     0.000,     0.000,   1,1,0
  1152,'84',0,   1,   2,     0.000,     0.000,     0.000,     0.000,     0.000,     0.000,   1,1,0
  1153,'84',0,   1,   2,     0.000,     0.000,     0.000,     0.000,     0.000,     0.000,   1,1,0
  1154,'1 ',1,   1,   1,     7.131,     6.589,     0.000,     0.000,     0.000,     0.000,   1,1,0
  1154,'2 ',1,   1,   1,     7.131,     6.589,     0.000,     0.000,     0.000,     0.000,   1,1,0
  1154,'3 ',1,   1,   1,     1.784,    -0.467,     0.000,     0.000,     0.000,     0.000,   1,1,0
  1155,'88',1,   1,   3,    70.774,     0.000,     0.000,     0.000,     0.000,     0.000,   1,1,0
  1157,'1 ',1,   1,   1,    15.390,     4.353,     0.000,     0.000,     0.000,     0.000,   1,1,0
  1157,'2 ',0,   1,   1,     0.000,     0.000,     0.000,     0.000,     0.000,     0.000,   1,1,0
  1157,'84',0,   1,   1,     0.000,     0.000,     0.000,     0.000,     0.000,     0.000,   1,1,0
  1159,'84',0,   1,   3,     0.000,     0.000,     0.000,     0.000,     0.000,     0.000,   1,1,0
  1160,'1 ',1,   1,   1,     9.434,     0.701,     0.000,     0.000,     0.000,     0.000,   1,1,0
  1160,'2 ',0,   1,   1,     0.000,     0.000,     0.000,     0.000,     0.000,     0.000,   1,1,0
  1160,'99',1,   1,   1,     1.628,     0.107,     0.000,     0.000,     0.000,     0.000,   1,1,0
  1161,'1 ',1,   1,   3,    11.553,    -2.268,     0.000,     0.000,     0.000,     0.000,   1,1,0
  1161,'99',1,   1,   3,   -21.467,     0.000,     0.000,     0.000,     0.000,     0.000,   1,1,0
  1162,'1 ',0,   1,   3,     0.000,     0.000,     0.000,     0.000,     0.000,     0.000,   1,1,0
  1162,'2 ',0,   1,   3,     0.000,     0.000,     0.000,     0.000,     0.000,     0.000,   1,1,0
  1162,'3 ',0,   1,   3,     0.000,     0.000,     0.000,     0.000,     0.000,     0.000,   1,1,0
  1162,'99',1,   1,   3,    14.776,    -7.154,     0.000,     0.000,     0.000,     0.000,   1,1,0
  1177,'4 ',0,   1,   3,     0.000,     0.000,     0.000,     0.000,     0.000,     0.000,   1,1,0
  1177,'5 ',0,   1,   3,     0.000,     0.000,     0.000,     0.000,     0.000,     0.000,   1,1,0
  1177,'6 ',0,   1,   3,     0.000,     0.000,     0.000,     0.000,     0.000,     0.000,   1,1,0
  1177,'7 ',1,   1,   3,    11.023,     0.364,     0.000,     0.000,     0.000,     0.000,   1,1,0
  1177,'99',1,   1,   3,    21.441,     2.374,     0.000,     0.000,     0.000,     0.000,   1,1,0
  1183,'1 ',1,   1,   1,    -2.642,     8.580,     0.000,     0.000,     0.000,     0.000,   1,1,0
  1183,'2 ',1,   1,   1,     1.889,     8.258,     0.000,     0.000,     0.000,     0.000,   1,1,0
  1183,'3 ',1,   1,   1,     2.966,     8.609,     0.000,     0.000,     0.000,     0.000,   1,1,0
  1183,'84',0,   1,   1,     0.000,     0.000,     0.000,     0.000,     0.000,     0.000,   1,1,0
  1183,'99',1,   1,   1,    13.842,    -0.628,     0.000,     0.000,     0.000,     0.000,   1,1,0
  1189,'1 ',1,   1,   3,    11.094,   -10.242,     0.000,     0.000,     0.000,     0.000,   1,1,0
  1189,'2 ',0,   1,   3,     0.000,     0.000,     0.000,     0.000,     0.000,     0.000,   1,1,0
  1189,'99',1,   1,   3,    11.027,    -0.294,     0.000,     0.000,     0.000,     0.000,   1,1,0
  1192,'1 ',1,   1,   1,     1.743,     0.139,     0.000,     0.000,     0.000,     0.000,   1,1,0
  1192,'2 ',1,   1,   1,     1.756,     0.128,     0.000,     0.000,     0.000,     0.000,   1,1,0
  1197,'88',1,   1,   2,    26.255,     0.000,     0.000,     0.000,     0.000,     0.000,   1,1,0
...
0 / END OF LOAD DATA, BEGIN FIXED SHUNT DATA
  1001,'99',1,     0.000,     0.056
  1003,'99',1,     0.000,     4.803
  1005,'99',1,     0.001,     2.315
  1006,'99',1,     0.225,    11.588
  1007,'99',1,     0.014,     3.752
  1011,'99',1,     0.000,     0.803
  1013,'99',1,     0.013,     1.706
  1018,'99',1,     0.055,    12.378
  1022,'99',1,     0.000,     1.049
  1040,'99',1,     0.000,     3.742
  1042,'99',1,     0.000,     3.650
  1048,'99',1,     0.008,     0.967
  1051,'99',1,     0.029,     2.736
  1057,'99',1,     0.000,     1.610
  1061,'99',1,     0.000,     3.080
  1064,'99',1,     0.002,     0.481
  1065,'99',1,     0.506,     6.119
  1069,'99',1,     0.000,     0.939
  1072,'99',1,     0.000,     1.597
  1076,'99',1,     0.009,     6.529
  1079,'99',1,     0.000,     5.938
  1080,'99',1,     0.008,     1.827
  1086,'99',1,     0.003,     1.334
  1087,'99',1,     0.000,     5.589
  1091,'99',1,     0.000,     3.330
  1098,'99',1,     0.000,    11.899
  1106,'99',1,     0.004,     1.576
  1107,'99',1,     0.011,     4.154
  1126,'98',1,     0.001,     0.225
  1129,'99',1,     0.000,     0.616
  1132,'99',1,     0.000,     0.822
  1138,'99',1,     0.000,     7.560
  1145,'99',1,     0.000,     1.267
  1159,'99',1,     0.000,     3.603
  1160,'99',1,     0.000,     2.423
  1161,'99',1,     0.000,     0.971
  1162,'99',1,     0.006,     1.028
  1177,'99',1,     0.003,     2.325
  1183,'99',1,     0.168,     3.592
  1189,'99',1,     0.013,     1.247
  1198,'99',1,     0.000,    10.110
  1204,'99',1,     0.000,     0.968
  1208,'99',1,     0.001,     0.891
  1210,'99',1,     0.037,     2.014
  1212,'99',1,     0.000,     0.759
  1510,'99',1,     0.000,     1.864
  1533,'99',1,     0.000,     1.096
  1543,'99',1,     0.028,     1.725
  1553,'99',1,     0.000,     0.109
  1556,'99',1,     0.000,     0.209
  1573,'99',1,     0.005,     1.678
  1576,'99',1,     0.000,     3.075
  2006,'99',1,     0.000,     5.575
  2009,'99',1,     0.000,     0.128
  2018,'99',1,     0.023,     0.938
  2027,'99',1,     0.000,     0.771
  2037,'99',1,     0.000,     1.501
  2048,'99',1,     0.010,     3.664
  2058,'99',1,     0.000,     1.886
  2060,'99',1,     0.013,     0.714
  2066,'99',1,     0.000,     3.949
  2068,'99',1,     0.000,     0.935
  2072,'99',1,     0.000,     2.409
  2093,'99',1,     0.000,     0.639
  2095,'99',1,     0.006,     1.160
  2097,'99',1,     0.000,     1.357
  2100,'99',1,     0.000,     0.405
  2209,'99',1,     0.000,     1.820
  2216,'99',1,     0.000,     0.692
  2234,'99',1,     0.023,     4.556
  2243,'99',1,     0.000,     3.592
  2258,'99',1,     0.000,     0.375
  2288,'99',1,     0.000,     0.302
  2323,'99',1,     0.000,     0.977
  2324,'99',1,     0.001,     0.693
  2331,'99',1,     0.042,     1.071
  2339,'99',1,     0.002,     3.113
  2342,'99',1,     0.006,     1.248
  2387,'99',1,     0.001,     0.924
  2426,'99',1,     0.000,     1.206
  2456,'99',1,     0.000,     1.026
  3002,'99',1,     0.013,     0.918
  3006,'99',1,     0.000,     0.313
  3007,'99',1,     0.000,     2.620
  3009,'99',1,     0.000,     3.014
  3012,'98',1,     0.000,     0.662
  3015,'99',1,     0.000,     0.814
  3021,'99',1,     0.001,     0.669
  3027,'99',1,     0.000,     1.468
  3030,'99',1,     0.000,     0.330
  3036,'99',1,     0.000,     0.238
  3039,'99',1,     0.000,     0.708
  3045,'99',1,     0.001,     0.874
  3047,'99',1,     0.000,     0.335
  3048,'99',1,     0.017,     0.000
  3051,'99',1,     0.040,     0.802
  3077,'99',1,     0.000,     3.125
  3078,'99',1,     0.000,     5.896
  3081,'99',1,     0.340,     5.735
  3108,'99',1,     0.015,     3.761
  3115,'99',1,     0.001,     3.248
  3117,'99',1,     0.000,     2.741
  3119,'99',1,     0.005,     2.145
  3120,'99',1,     0.001,     4.868
  3129,'98',1,     0.000,     1.273
  3141,'99',1,     0.001,     2.200
  3153,'99',1,     0.000,     4.355
  3162,'99',1,     0.000,     2.064
  3166,'99',1,     0.009,     1.186
  3174,'99',1,     0.000,     0.617
  3177,'99',1,     0.000,     9.176
  3183,'99',1,     0.000,     0.090
  3188,'99',1,     0.002,     1.048
  3189,'99',1,     0.000,     3.549
  3193,'99',1,     0.000,     1.174
  3195,'99',1,     0.000,     2.372
  3204,'99',1,     0.000,     7.452
  3212,'99',1,     0.000,     0.632
  3216,'99',1,     0.000,     0.492
  3231,'99',1,     0.000,     0.476
  3234,'99',1,     0.000,     0.335
  3235,'99',1,     0.003,     4.984
  3237,'99',1,     0.003,     3.923
  3252,'99',1,     0.030,     1.049
  3261,'99',1,     0.006,     1.861
  3262,'99',1,     0.000,     1.351
  3270,'99',1,     0.000,     0.321
  3283,'99',1,     0.000,     0.980
  3295,'99',1,     0.000,     1.715
  3309,'99',1,     0.000,     1.742
  3319,'99',1,     0.000,     0.093
  3333,'99',1,     0.000,     1.303
  3337,'99',1,     0.007,     0.421
  3345,'99',1,     0.000,     0.947
  3349,'99',1,     0.000,     2.838
  3351,'99',1,     0.062,     1.309
  3365,'99',1,     0.034,     1.979
  3366,'99',1,     0.038,     3.604
  3368,'99',1,     0.000,     2.761
  3375,'99',1,     0.000,     1.089
  3393,'99',1,     0.000,     2.847
  3405,'99',1,     0.035,     7.826
  3417,'99',1,     0.000,     2.685
  3426,'99',1,     0.000,     3.280
  3435,'99',1,     0.000,     1.157
  3438,'99',1,     0.000,     1.089
  3441,'98',1,     0.075,     7.816
  3444,'98',1,     0.035,    12.640
  3459,'99',1,     0.000,     1.225
  3462,'99',1,     0.001,     1.714
  3465,'99',1,     0.000,     1.086
  3481,'99',1,     0.000,     4.277
  3495,'99',1,     0.000,     1.287
  3498,'99',1,     0.000,     0.562
  3504,'99',1,     0.033,     1.186
  3534,'99',1,     0.001,     1.089
  3536,'99',1,     0.000,     0.517
  3910,'98',1,     0.000,     9.034
  3939,'99',1,     0.001,     2.450
  4000,'98',1,     0.003,     3.300
  4012,'99',1,     0.000,     0.255
  4016,'99',1,     0.000,     1.472
  4021,'99',1,     0.000,     6.452
  4027,'99',1,     0.005,     5.953
  4044,'99',1,     0.000,     0.445
  4045,'99',1,     0.000,     1.506
  4047,'99',1,     0.000,     0.082
  4048,'99',1,     0.005,     1.925
  4054,'99',1,     0.000,     1.991
  4061,'99',1,     0.008,     1.875
  4072,'99',1,     0.037,     1.031
  4073,'99',1,     0.000,     2.264
  4080,'99',1,     0.000,     3.259
  4085,'99',1,     0.000,     3.778
  4087,'99',1,     0.000,     2.362
  4090,'99',1,     0.000,     2.422
  4099,'99',1,     0.625,     0.000
  4102,'99',1,     0.000,     2.077
  4106,'99',1,     0.000,     7.167
  4114,'99',1,     0.000,    12.890
  4119,'99',1,     0.000,     2.372
  4121,'99',1,     0.076,     3.162
  4123,'99',1,     0.000,    30.338
  4129,'99',1,     0.009,     2.593
  4132,'99',1,     0.000,     8.183
  4135,'99',1,     0.349,     5.136
  4167,'99',1,     0.000,     1.604
  4200,'99',1,     0.015,     8.023
  4201,'99',1,     0.000,     4.301
  4216,'99',1,     0.000,     2.201
  4225,'99',1,     0.477,    38.887
  4231,'99',1,     0.000,     2.995
  4234,'99',1,     0.001,     1.383
  4237,'99',1,     0.000,     2.542
  4240,'99',1,     0.000,     2.112
  4243,'99',1,     0.000,     2.553
  4244,'99',1,     0.010,     1.094
  4259,'99',1,     0.000,     4.696
  4261,'99',1,     0.000,     3.825
  4264,'99',1,     0.002,     1.628
...
0 / END OF FIXED SHUNT DATA, BEGIN GENERATOR DATA
  1000,'1T',     0.166,     0.000,     0.000,     0.000,0.99908,     0,    41.260, 0.00000E+0, 1.50000E-1, 0.00000E+0, 0.00000E+0,1.00000,1,  100.0,    41.250,     0.000,   1,0.2500,   1,0.2500,   1,0.2500,   1,0.2500,3, 1.0000
  1001,'1Y',    34.000,   -20.000,    10.000,   -20.000,1.03485,     0,   105.130, 0.00000E+0, 4.56300E-1, 0.00000E+0, 0.00000E+0,1.00000,1,  100.0,   105.120,    34.000,   1,0.2500,   1,0.2500,   1,0.2500,   1,0.2500
  1003,'1%',     0.000,     0.000,     2.000,    -2.000,1.00000,     0,     7.857, 0.00000E+0, 5.00000E-1, 0.00000E+0, 0.00000E+0,1.00000,0,  100.0,     7.846,     0.000,   1,0.2500,   1,0.2500,   1,0.2500,   1,0.2500,3, 1.0000
  1006,'1%',     0.000,     0.000,     2.000,    -2.000,1.00000,     0,     6.249, 0.00000E+0, 5.00000E-1, 0.00000E+0, 0.00000E+0,1.00000,0,  100.0,     6.239,     0.000,   1,0.2500,   1,0.2500,   1,0.2500,   1,0.2500,3, 1.0000
  1009,'1%',     0.000,     0.000,     2.000,    -2.000,1.00000,     0,     1.255, 0.00000E+0, 5.00000E-1, 0.00000E+0, 0.00000E+0,1.00000,0,  100.0,     1.245,     0.000,   1,0.2500,   1,0.2500,   1,0.2500,   1,0.2500,3, 1.0000
  1010,'14',     4.200,     1.596,     2.100,    -1.050,1.03354,     0,     4.700, 0.00000E+0, 1.80000E-2, 0.00000E+0, 0.00000E+0,1.00000,1,  100.0,     4.200,     0.000,   1,0.2500,   1,0.2500,   1,0.2500,   1,0.2500
  1010,'24',     4.000,     1.520,     2.000,    -1.000,1.03354,     0,     4.470, 0.00000E+0, 1.73000E-2, 0.00000E+0, 0.00000E+0,1.00000,1,  100.0,     4.000,     0.000,   1,0.2500,   1,0.2500,   1,0.2500,   1,0.2500
  1012,'14',    20.800,    -0.107,    18.550,   -50.000,1.03261,     0,   150.300, 0.00000E+0, 4.58000E-1, 0.00000E+0, 0.00000E+0,1.00000,1,  100.0,    20.800,    10.400,   1,0.2500,   1,0.2500,   1,0.2500,   1,0.2500
  1013,'2T',   189.980,     0.000,     0.000,     0.000,1.00413,     0,   189.990, 0.00000E+0, 4.58000E-1, 0.00000E+0, 0.00000E+0,1.00000,1,  100.0,   189.980,     0.000,   1,0.2500,   1,0.2500,   1,0.2500,   1,0.2500,3, 1.0000
  1013,'4T',    22.500,     0.000,     0.000,     0.000,1.00413,     0,    22.510, 0.00000E+0, 3.03100E-1, 0.00000E+0, 0.00000E+0,1.00000,1,  100.0,    22.500,     0.000,   1,0.2500,   1,0.2500,   1,0.2500,   1,0.2500,3, 1.0000
  1014,'14',     5.900,     1.696,     3.250,    -1.630,1.03507,     0,     7.270, 0.00000E+0, 2.81000E-2, 0.00000E+0, 0.00000E+0,1.00000,1,  100.0,     6.500,     0.000,   1,0.2500,   1,0.2500,   1,0.2500,   1,0.2500
  1014,'24',     5.800,     1.667,     3.100,    -1.550,1.03507,     0,     6.930, 0.00000E+0, 2.66000E-2, 0.00000E+0, 0.00000E+0,1.00000,1,  100.0,     6.200,     0.000,   1,0.2500,   1,0.2500,   1,0.2500,   1,0.2500
  1021,'1%',     0.000,     0.000,     2.000,    -2.000,1.00000,     0,     4.314, 0.00000E+0, 5.00000E-1, 0.00000E+0, 0.00000E+0,1.00000,0,  100.0,     4.304,     0.000,   1,0.2500,   1,0.2500,   1,0.2500,   1,0.2500,3, 1.0000
  1022,'1T',     4.063,     0.000,     0.000,     0.000,1.04152,     0,    19.610, 0.00000E+0, 4.89600E-1, 0.00000E+0, 0.00000E+0,1.00000,1,  100.0,    19.600,     0.000,   1,0.2500,   1,0.2500,   1,0.2500,   1,0.2500,3, 1.0000
  1025,'1T',    15.039,     0.000,     0.000,     0.000,1.02340,     0,    24.710, 0.00000E+0, 2.71900E-1, 0.00000E+0, 0.00000E+0,1.00000,1,  100.0,    24.700,     0.000,   1,0.2500,   1,0.2500,   1,0.2500,   1,0.2500,3, 1.0000
  1025,'2T',    11.034,     0.000,     0.000,     0.000,1.02340,     0,    19.510, 0.00000E+0, 2.12400E-1, 0.00000E+0, 0.00000E+0,1.00000,1,  100.0,    19.500,     0.000,   1,0.2500,   1,0.2500,   1,0.2500,   1,0.2500,3, 1.0000
  1027,'1%',     0.000,     0.000,     2.000,    -2.000,1.00000,     0,     3.135, 0.00000E+0, 5.00000E-1, 0.00000E+0, 0.00000E+0,1.00000,0,  100.0,     3.125,     0.000,   1,0.2500,   1,0.2500,   1,0.2500,   1,0.2500,3, 1.0000
  1027,'1T',    78.202,     0.000,     0.000,     0.000,1.00000,     0,   128.010, 0.00000E+0, 5.00000E-1, 0.00000E+0, 0.00000E+0,1.00000,1,  100.0,   128.000,     0.000,   1,0.2500,   1,0.2500,   1,0.2500,   1,0.2500,3, 1.0000
  1040,'14',     1.300,     8.000,     8.000,     3.000,1.02573,     0,    12.000, 0.00000E+0, 1.40000E-2, 0.00000E+0, 0.00000E+0,1.00000,1,  100.0,     4.100,     0.000,   1,0.2500,   1,0.2500,   1,0.2500,   1,0.2500
  1040,'24',     2.200,     8.000,     8.000,     3.000,1.02573,     0,    12.000, 0.00000E+0, 1.40000E-2, 0.00000E+0, 0.00000E+0,1.00000,1,  100.0,     4.100,     0.000,   1,0.2500,   1,0.2500,   1,0.2500,   1,0.2500
  1040,'34',     6.500,     8.000,     8.000,     3.000,1.02573,     0,    12.000, 0.00000E+0, 1.40000E-2, 0.00000E+0, 0.00000E+0,1.00000,1,  100.0,     9.800,     0.000,   1,0.2500,   1,0.2500,   1,0.2500,   1,0.2500
  1042,'1Y',     0.000,     0.969,    15.535,   -37.465,1.01244,     0,    49.510, 0.00000E+0, 2.39000E-1, 0.00000E+0, 0.00000E+0,1.00000,0,  100.0,    49.500,     0.000,   1,0.2500,   1,0.2500,   1,0.2500,   1,0.2500
  1043,'14',    19.107,    -2.619,    11.837,    -6.919,1.04315,     0,    32.600, 0.00000E+0, 2.00000E-1, 0.00000E+0, 0.00000E+0,1.00000,1,  100.0,    23.700,     0.000,   1,0.2500,   1,0.2500,   1,0.2500,   1,0.2500
  1043,'24',    17.852,    -2.447,     4.000,    -3.000,1.04315,     0,    32.600, 0.00000E+0, 2.00000E-1, 0.00000E+0, 0.00000E+0,1.00000,1,  100.0,    23.700,     0.000,   1,0.2500,   1,0.2500,   1,0.2500,   1,0.2500
  1043,'34',    12.111,    -1.660,     7.690,    -4.850,1.04315,     0,    14.600, 0.00000E+0, 2.00000E-1, 0.00000E+0, 0.00000E+0,1.00000,1,  100.0,    14.100,     0.000,   1,0.2500,   1,0.2500,   1,0.2500,   1,0.2500
  1043,'44',    28.800,    -3.947,    10.000,    -5.450,1.04315,     0,    32.600, 0.00000E+0, 2.00000E-1, 0.00000E+0, 0.00000E+0,1.00000,1,  100.0,    40.300,     5.000,   1,0.2500,   1,0.2500,   1,0.2500,   1,0.2500
  1043,'54',    23.100,    -3.166,    10.000,    -4.000,1.04315,     0,    32.600, 0.00000E+0, 2.00000E-1, 0.00000E+0, 0.00000E+0,1.00000,1,  100.0,    41.200,     5.000,   1,0.2500,   1,0.2500,   1,0.2500,   1,0.2500
  1048,'14',     3.600,    -3.200,     3.200,    -3.200,1.00905,     0,    50.000, 0.00000E+0, 1.50000E-1, 0.00000E+0, 0.00000E+0,1.00000,1,  100.0,     7.900,     2.500,   1,0.2500,   1,0.2500,   1,0.2500,   1,0.2500
  1048,'1U',     0.000,     0.000,     2.000,    -2.000,1.00905,     0,     1.755, 0.00000E+0, 5.00000E-1, 0.00000E+0, 0.00000E+0,1.00000,0,  100.0,     1.745,     0.000,   1,0.2500,   1,0.2500,   1,0.2500,   1,0.2500,3, 1.0000
  1052,'1%',     0.000,     0.000,     2.000,    -2.000,1.00000,     0,     1.249, 0.00000E+0, 5.00000E-1, 0.00000E+0, 0.00000E+0,1.00000,0,  100.0,     1.239,     0.000,   1,0.2500,   1,0.2500,   1,0.2500,   1,0.2500,3, 1.0000
  1055,'1%',     0.000,     0.000,     2.000,    -2.000,1.00000,     0,     4.744, 0.00000E+0, 5.00000E-1, 0.00000E+0, 0.00000E+0,1.00000,0,  100.0,     4.734,     0.000,   1,0.2500,   1,0.2500,   1,0.2500,   1,0.2500,3, 1.0000
  1057,'1U',     0.000,     0.000,     2.000,    -2.000,1.00000,     0,     1.644, 0.00000E+0, 5.00000E-1, 0.00000E+0, 0.00000E+0,1.00000,0,  100.0,     1.634,     0.000,   1,0.2500,   1,0.2500,   1,0.2500,   1,0.2500,3, 1.0000
  1058,'1U',     0.000,     0.000,     2.000,    -2.000,1.00000,     0,    11.978, 0.00000E+0, 5.00000E-1, 0.00000E+0, 0.00000E+0,1.00000,0,  100.0,    11.968,     0.000,   1,0.2500,   1,0.2500,   1,0.2500,   1,0.2500,3, 1.0000
  1060,'1%',     0.000,     0.000,     2.000,    -2.000,1.00000,     0,     1.270, 0.00000E+0, 5.00000E-1, 0.00000E+0, 0.00000E+0,1.00000,0,  100.0,     1.260,     0.000,   1,0.2500,   1,0.2500,   1,0.2500,   1,0.2500,3, 1.0000
  1061,'1%',     0.000,     0.000,     2.000,    -2.000,1.00000,     0,     6.409, 0.00000E+0, 5.00000E-1, 0.00000E+0, 0.00000E+0,1.00000,0,  100.0,     6.399,     0.000,   1,0.2500,   1,0.2500,   1,0.2500,   1,0.2500,3, 1.0000
  1061,'1U',     0.000,     0.000,     2.000,    -2.000,1.00000,     0,    16.057, 0.00000E+0, 5.00000E-1, 0.00000E+0, 0.00000E+0,1.00000,0,  100.0,    16.047,     0.000,   1,0.2500,   1,0.2500,   1,0.2500,   1,0.2500,3, 1.0000
  1065,'1T',    43.133,     0.000,     0.000,     0.000,1.00000,     0,    75.910, 0.00000E+0, 5.00000E-1, 0.00000E+0, 0.00000E+0,1.00000,1,  100.0,    75.900,     0.000,   1,0.2500,   1,0.2500,   1,0.2500,   1,0.2500,3, 1.0000
  1076,'1%',     0.000,     0.000,     2.000,    -2.000,1.00000,     0,     9.858, 0.00000E+0, 5.00000E-1, 0.00000E+0, 0.00000E+0,1.00000,0,  100.0,     9.849,     0.000,   1,0.2500,   1,0.2500,   1,0.2500,   1,0.2500,3, 1.0000
  1076,'1U',     0.000,     0.000,     2.000,    -2.000,1.00000,     0,     4.716, 0.00000E+0, 5.00000E-1, 0.00000E+0, 0.00000E+0,1.00000,0,  100.0,     4.706,     0.000,   1,0.2500,   1,0.2500,   1,0.2500,   1,0.2500,3, 1.0000
  1078,'1%',     0.000,     0.000,     2.000,    -2.000,1.00000,     0,     2.421, 0.00000E+0, 5.00000E-1, 0.00000E+0, 0.00000E+0,1.00000,0,  100.0,     2.411,     0.000,   1,0.2500,   1,0.2500,   1,0.2500,   1,0.2500,3, 1.0000
  1080,'1%',     0.000,     0.000,     2.000,    -2.000,1.00000,     0,     9.457, 0.00000E+0, 5.00000E-1, 0.00000E+0, 0.00000E+0,1.00000,0,  100.0,     9.447,     0.000,   1,0.2500,   1,0.2500,   1,0.2500,   1,0.2500,3, 1.0000
  1080,'1T',    51.103,     0.000,     0.000,     0.000,1.00000,     0,    76.440, 0.00000E+0, 5.00000E-1, 0.00000E+0, 0.00000E+0,1.00000,1,  100.0,    76.430,     0.000,   1,0.2500,   1,0.2500,   1,0.2500,   1,0.2500,3, 1.0000
  1080,'1U',     0.000,     0.000,     2.000,    -2.000,1.00000,     0,    12.632, 0.00000E+0, 5.00000E-1, 0.00000E+0, 0.00000E+0,1.00000,0,  100.0,    12.622,     0.000,   1,0.2500,   1,0.2500,   1,0.2500,   1,0.2500,3, 1.0000
  1084,'1U',     0.000,     0.000,     2.000,    -2.000,1.00000,     0,     3.208, 0.00000E+0, 5.00000E-1, 0.00000E+0, 0.00000E+0,1.00000,0,  100.0,     3.198,     0.000,   1,0.2500,   1,0.2500,   1,0.2500,   1,0.2500,3, 1.0000
  1086,'1T',    48.005,     0.000,     0.000,     0.000,1.01802,     0,    49.310, 0.00000E+0, 6.37300E-1, 0.00000E+0, 0.00000E+0,1.00000,1,  100.0,    49.300,     0.000,   1,0.2500,   1,0.2500,   1,0.2500,   1,0.2500,3, 1.0000
  1086,'2T',     0.095,     0.000,     0.000,     0.000,1.01802,     0,    23.510, 0.00000E+0, 5.00000E-1, 0.00000E+0, 0.00000E+0,1.00000,1,  100.0,    23.500,     0.000,   1,0.2500,   1,0.2500,   1,0.2500,   1,0.2500,3, 1.0000
  1087,'1T',    51.141,     0.000,     0.000,     0.000,1.03198,     0,    86.010, 0.00000E+0, 4.58000E-1, 0.00000E+0, 0.00000E+0,1.00000,1,  100.0,    86.000,     0.000,   1,0.2500,   1,0.2500,   1,0.2500,   1,0.2500,3, 1.0000
  1089,'1T',    20.018,     0.000,     0.000,     0.000,1.02369,     0,    24.430, 0.00000E+0, 2.71900E-1, 0.00000E+0, 0.00000E+0,1.00000,1,  100.0,    24.420,     0.000,   1,0.2500,   1,0.2500,   1,0.2500,   1,0.2500,3, 1.0000
  1090,'14',     8.200,    -0.887,    18.356,   -16.612,1.03359,     0,    20.000, 0.00000E+0, 2.00000E-1, 0.00000E+0, 0.00000E+0,1.00000,1,  100.0,    17.900,     0.000,   1,0.2500,   1,0.2500,   1,0.2500,   1,0.2500
  1090,'24',    11.100,    -1.200,    12.000,   -12.000,1.03359,     0,    20.000, 0.00000E+0, 2.00000E-1, 0.00000E+0, 0.00000E+0,1.00000,1,  100.0,    17.900,     0.000,   1,0.2500,   1,0.2500,   1,0.2500,   1,0.2500
  1090,'34',    12.600,    -1.363,    12.000,   -12.000,1.03359,     0,    20.000, 0.00000E+0, 2.00000E-1, 0.00000E+0, 0.00000E+0,1.00000,1,  100.0,    17.800,     0.000,   1,0.2500,   1,0.2500,   1,0.2500,   1,0.2500
  1090,'44',    10.900,    -1.179,    12.000,   -12.000,1.03359,     0,    20.000, 0.00000E+0, 2.00000E-1, 0.00000E+0, 0.00000E+0,1.00000,1,  100.0,    18.100,     0.000,   1,0.2500,   1,0.2500,   1,0.2500,   1,0.2500
  1090,'5T',    22.052,     0.000,     0.000,     0.000,1.03359,     0,    34.860, 0.00000E+0, 2.00000E-1, 0.00000E+0, 0.00000E+0,1.00000,1,  100.0,    34.850,     0.000,   1,0.2500,   1,0.2500,   1,0.2500,   1,0.2500,3, 1.0000
  1091,'1T',    31.059,     0.000,     0.000,     0.000,1.01182,     0,    45.760, 0.00000E+0, 7.64700E-1, 0.00000E+0, 0.00000E+0,1.00000,1,  100.0,    45.750,     0.000,   1,0.2500,   1,0.2500,   1,0.2500,   1,0.2500,3, 1.0000
  1094,'1T',    23.110,     0.000,     0.000,     0.000,1.09532,     0,    50.410, 0.00000E+0, 4.89600E-1, 0.00000E+0, 0.00000E+0,1.00000,1,  100.0,    50.400,     0.000,   1,0.2500,   1,0.2500,   1,0.2500,   1,0.2500,3, 1.0000
  1096,'1%',     0.000,     0.000,     2.000,    -2.000,1.02879,     0,     1.557, 0.00000E+0, 5.00000E-1, 0.00000E+0, 0.00000E+0,1.00000,0,  100.0,     1.547,     0.000,   1,0.2500,   1,0.2500,   1,0.2500,   1,0.2500,3, 1.0000
  1096,'1T',    21.059,     0.000,     0.000,     0.000,1.02879,     0,    35.710, 0.00000E+0, 4.58000E-1, 0.00000E+0, 0.00000E+0,1.00000,1,  100.0,    35.700,     0.000,   1,0.2500,   1,0.2500,   1,0.2500,   1,0.2500,3, 1.0000
...